/*--------------------------------*- C++ -*----------------------------------*\
| =========                 |                                                 |
| \\      /  F ield         | OpenFOAM: The Open Source CFD Toolbox           |
|  \\    /   O peration     | Version:  3.0.x                                 |
|   \\  /    A nd           | Web:      www.OpenFOAM.org                      |
|    \\/     M anipulation  |                                                 |
|*---------------------------------------------------------------------------*|
|  File created by CFD support s.r.o., Tue Feb 28 09:23:31 2017               |
|                    http://www.cdfsupport.com                                |
\*---------------------------------------------------------------------------*/
FoamFile
{
    version     3.0;
    format      ascii;
    class       dictionary;
    location    "mesh/component2/system";
    object      blockMeshDict;
}
// * * * * * * * * * * * * * * * * * * * * * * * * * * * * * * * * * * * * * //

convertToMeters 1;

vertices
(
    (-5000 -30000 -27500)
    (10000 -30000 -27500)
    (10000 30000 -27500)
    (-5000 30000 -27500)
    (-5000 -30000 32500)    
    (10000 -30000 32500) 
    (10000 30000 32500)
    (-5000 30000 32500)
);

blocks
(
    hex (0 1 2 3 4 5 6 7) (75 300 300) simpleGrading (1 1 1)
);

edges
(
);

boundary
(
    defaultPatch
    {
        type patch;
        faces
        (
             (3 7 6 2)
             (0 4 7 3)
             (1 5 4 0)
             (0 3 2 1)
             (4 5 6 7)
             (2 6 5 1)
        );
    }
);

// ************************************************************************* //
