/*--------------------------------*- C++ -*----------------------------------*\
| =========                 |                                                 |
| \\      /  F ield         | OpenFOAM: The Open Source CFD Toolbox           |
|  \\    /   O peration     | Version:  3.0.x                                 |
|   \\  /    A nd           | Web:      www.OpenFOAM.org                      |
|    \\/     M anipulation  |                                                 |
|*---------------------------------------------------------------------------*|
|  File created by CFD support s.r.o., Tue Feb 28 09:23:31 2017               |
|                    http://www.cdfsupport.com                                |
\*---------------------------------------------------------------------------*/
FoamFile
{
    version     3.0;
    format      ascii;
    class       dictionary;
    location    "mesh/component2/system";
    object      surfaceFeatureExtractDict;
}
// * * * * * * * * * * * * * * * * * * * * * * * * * * * * * * * * * * * * * //

hub.stl
{
    #include "surfaceFeatureExtractDictDefaults"
}

// blade1 //
blade1-pressureSide1.stl
{
    #include "surfaceFeatureExtractDictDefaults"
}

blade1-pressureSide2.stl
{
    #include "surfaceFeatureExtractDictDefaults"
}

blade1-suctionSide1.stl
{
    #include "surfaceFeatureExtractDictDefaults"
}

blade1-suctionSide2.stl
{
    #include "surfaceFeatureExtractDictDefaults"
}

blade1-cap.stl
{
    #include "surfaceFeatureExtractDictDefaults"
}

// blade2 //
blade2-pressureSide1.stl
{
    #include "surfaceFeatureExtractDictDefaults"
}

blade2-pressureSide2.stl
{
    #include "surfaceFeatureExtractDictDefaults"
}

blade2-suctionSide1.stl
{
    #include "surfaceFeatureExtractDictDefaults"
}

blade2-suctionSide2.stl
{
    #include "surfaceFeatureExtractDictDefaults"
}

blade2-cap.stl
{
    #include "surfaceFeatureExtractDictDefaults"
}

// blade3 //
blade3-pressureSide1.stl
{
    #include "surfaceFeatureExtractDictDefaults"
}

blade3-pressureSide2.stl
{
    #include "surfaceFeatureExtractDictDefaults"
}

blade3-suctionSide1.stl
{
    #include "surfaceFeatureExtractDictDefaults"
}

blade3-suctionSide2.stl
{
    #include "surfaceFeatureExtractDictDefaults"
}

blade3-cap.stl
{
    #include "surfaceFeatureExtractDictDefaults"
}

// rotBox //
rotBox-inlet.stl
{
    #include "surfaceFeatureExtractDictDefaults"
}


rotBox-outlet1.stl
{
    #include "surfaceFeatureExtractDictDefaults"
}


rotBox-outlet2.stl
{
    #include "surfaceFeatureExtractDictDefaults"
}

rotBox-outlet3.stl
{
    #include "surfaceFeatureExtractDictDefaults"
}

rotBox-side.stl
{
    #include "surfaceFeatureExtractDictDefaults"
}



// ************************************************************************* //
