/*--------------------------------*- C++ -*----------------------------------*\
| =========                 |                                                 |
| \\      /  F ield         | OpenFOAM: The Open Source CFD Toolbox           |
|  \\    /   O peration     | Version:  7                                |
|   \\  /    A nd           | Web:      www.OpenFOAM.org                      |
|    \\/     M anipulation  |                                                 |
\*---------------------------------------------------------------------------*/
FoamFile
{
    version     2.0;
    format      ascii;
    class       volScalarField;
    location    "0";
    object      h;
}
// * * * * * * * * * * * * * * * * * * * * * * * * * * * * * * * * * * * * * //

dimensions      [0 1 0 0 0 0 0];

internalField   uniform 0;

boundaryField
{
    inlet
    {
        type            fixedValue;
        value           uniform 0;
    }

    cyclicLeft
    {
        type            fixedValue;
        value           uniform 0;
    }

    groundLeft
    {
        type            fixedValue;
        value           uniform 0.04375;
    }

    topLeft
    {
        type            symmetry;
        value           uniform 0;
    }

    frontAndBackLeft
    {
        type            symmetry;
        value           uniform 0;
    }

    cyclicRight
    {
        type            fixedValue;
        value           uniform 0;
    }

    outlet
    {
        type            fixedValue;
        value           uniform 0;
    }

    groundRight
    {
        type            fixedValue;
        value           uniform 0.04375;
    }

    topRight
    {
        type            symmetry;
        value           uniform 0;
    }

    frontAndBackRight
    {
        type            symmetry;
        value           uniform 0;
    }

}

// ************************************************************************* //
