/*--------------------------------*- C++ -*----------------------------------*\
| =========                 |                                                 |
| \\      /  F ield         | OpenFOAM: The Open Source CFD Toolbox           |
|  \\    /   O peration     | Version:  2.3.x                                 |
|   \\  /    A nd           | Web:      www.OpenFOAM.org                      |
|    \\/     M anipulation  |                                                 |
|*---------------------------------------------------------------------------*|
|  File created by CFD support s.r.o., Tue Jul 29 07:15:15 2014               |
|                    http://www.cdfsupport.com                                |
\*---------------------------------------------------------------------------*/
FoamFile
{
    version     2.3;
    format      ascii;
    class       dictionary;
    location    "system";
    object      createPatchDict;
}
// * * * * * * * * * * * * * * * * * * * * * * * * * * * * * * * * * * * * * //

pointSync false;

patches
(
    {
        // Name of new patch
        name rotBox1-outlet;

        // Dictionary to construct new patch from
        patchInfo
        {
            type cyclicAMI;
            neighbourPatch rotBox2-outlet;
        }

        // How to construct: either from 'patches' or 'set'
        constructFrom patches;

        // If constructFrom = patches : names of patches. Wildcards allowed.
        patches (rotBox1-outlet1 rotBox1-outlet2 rotBox1-outlet3);

    }
    {
        // Name of new patch
        name rotBox2-outlet;

        // Dictionary to construct new patch from
        patchInfo
        {
            type cyclicAMI;
            neighbourPatch rotBox1-outlet;
        }

        // How to construct: either from 'patches' or 'set'
        constructFrom patches;

        // If constructFrom = patches : names of patches. Wildcards allowed.
        patches (rotBox2-outlet1 rotBox2-outlet2 rotBox2-outlet3);

    }
);
