/*--------------------------------*- C++ -*----------------------------------*\
| =========                 |                                                 |
| \\      /  F ield         | OpenFOAM: The Open Source CFD Toolbox           |
|  \\    /   O peration     | Version:  3.0.x                                 |
|   \\  /    A nd           | Web:      www.OpenFOAM.org                      |
|    \\/     M anipulation  |                                                 |
|*---------------------------------------------------------------------------*|
|  File created by CFD support s.r.o., Tue Feb 28 09:22:42 2017               |
|                    http://www.cdfsupport.com                                |
\*---------------------------------------------------------------------------*/
FoamFile
{
    version     3.0;
    format      ascii;
    class       dictionary;
    location    "mesh/component1/system";
    object      surfaceFeatureExtractDict;
}
// * * * * * * * * * * * * * * * * * * * * * * * * * * * * * * * * * * * * * //

nacelle.stl
{
    #include "surfaceFeatureExtractDictDefaults"
}

tower.stl
{
    #include "surfaceFeatureExtractDictDefaults"
}

// rotBox //
rotBox-inlet.stl
{
    #include "surfaceFeatureExtractDictDefaults"
}

rotBox-outlet1.stl
{
    #include "surfaceFeatureExtractDictDefaults"
}


rotBox-outlet2.stl
{
    #include "surfaceFeatureExtractDictDefaults"
}

rotBox-outlet3.stl
{
    #include "surfaceFeatureExtractDictDefaults"
}

rotBox-side.stl
{
    #include "surfaceFeatureExtractDictDefaults"
}


// ************************************************************************* //
