/*--------------------------------*- C++ -*----------------------------------*\
| =========                 |                                                 |
| \\      /  F ield         | OpenFOAM: The Open Source CFD Toolbox           |
|  \\    /   O peration     | Version:  5                                     |
|   \\  /    A nd           | Web:      www.OpenFOAM.org                      |
|    \\/     M anipulation  |                                                 |
\*---------------------------------------------------------------------------*/
FoamFile
{
    version     2.0;
    format      ascii;
    class       dictionary;
    location    "constant";
    object      fvOptions;
}
// * * * * * * * * * * * * * * * * * * * * * * * * * * * * * * * * * * * * * //

momentumSource
{
    type            patchMeanVelocityForce;
    active          yes;

    patchMeanVelocityForceCoeffs
    {
        selectionMode    all;
        fields           (U);
        Ubar             (11.5546 0 0);
        patch            inlet;
        relaxation       1.0;
    }
}


// ************************************************************************* //
