/*--------------------------------*- C++ -*----------------------------------*\
| =========                 |                                                 |
| \\      /  F ield         | OpenFOAM: The Open Source CFD Toolbox           |
|  \\    /   O peration     | Version:  5                                     |
|   \\  /    A nd           | Web:      www.OpenFOAM.org                      |
|    \\/     M anipulation  |                                                 |
\*---------------------------------------------------------------------------*/
FoamFile
{
    version	 2.0;
    format	 ascii;
    class	 dictionary;
    object	 blockMeshDict;
}

convertToMeters	 1.0;

#include "../parameters"

vertices
(
    (0   $Y1 $Z1)    // vertex 0
    ($X1 $Y1 $Z1)    // vertex 1
    ($X1 $Y1 $Z2)    // vertex 2
    (0   $Y1 $Z2)    // vertex 3

    (0   $Y2 $Z1)    // vertex 4
    ($X1 $Y2 $Z1)    // vertex 5
    ($X1 $Y2 $Z2)    // vertex 6
    (0   $Y2 $Z2)    // vertex 7

);

blocks
(
    // block 0
    hex (0 1 5 4 3 2 6 7)
    (200 40 100)
    simpleGrading (1 1 1)

);

edges
(
);

boundary
(
    inlet
    {
        type patch;
        faces
        (
            (0 3 7 4)
        );
    }

    outlet
    {
        type patch;
        faces
        (
            (1 5 6 2)
        );
    }

    ground
    {
        type wall;
        faces
        (
            (0 1 2 3)
        );
    }

    top
    {
        type symmetry;
        faces
        (
            (4 7 6 5)
        );
    }


    frontAndBack
    {
        type symmetry;
        faces
        (
            (2 6 7 3)
            (0 4 5 1)
        );
    }

);

mergPatchPairs
(
);
