/*--------------------------------*- C++ -*----------------------------------*\
| =========                 |                                                 |
| \\      /  F ield         | OpenFOAM: The Open Source CFD Toolbox           |
|  \\    /   O peration     | Version:  1.6                                   |
|   \\  /    A nd           | Web:      www.OpenFOAM.org                      |
|    \\/     M anipulation  |                                                 |
\*---------------------------------------------------------------------------*/
FoamFile
{
    version     2.0;
    format      ascii;
    class       dictionary;
    location    "system";
    object      controlDict;
}
// * * * * * * * * * * * * * * * * * * * * * * * * * * * * * * * * * * * * * //

application     pisoFoam;

startFrom       latestTime;

startTime       0;

stopAt          endTime;

endTime         12;

deltaT          5e-04;

writeControl    timeStep;

writeInterval   200;

purgeWrite      10;

writeFormat     ascii;

writePrecision  6;

writeCompression uncompressed;

timeFormat      general;

timePrecision   6;

runTimeModifiable yes;

adjustTimeStep    no;

maxCo             0.5;

maxDeltaT         2.0e-3;

functions
{
    #includeFunc wallShearStress

    fieldAverage1
    {
        type            fieldAverage;
        libs            ("libfieldFunctionObjects.so");
        writeControl    writeTime;

        fields
        (
            U
            {
                mean        on;
                prime2Mean  on;
                base        time;
		window      6;
            }

            wallShearStress
            {
                mean        on;
                prime2Mean  off;
                base        time;
		window      6;
            }

        );
    }

    #includeFunc internalCloudUMean
    #includeFunc internalCloudU
    #includeFunc boundaryCloudwallShearStressMean
}

libs
(
    "libOpenFOAM.so"
    "libWallModelledLES.so"
);

// ************************************************************************* //
