/*--------------------------------*- C++ -*----------------------------------*\
| =========                 |                                                 |
| \\      /  F ield         | OpenFOAM: The Open Source CFD Toolbox           |
|  \\    /   O peration     | Version:  3.0.x                                 |
|   \\  /    A nd           | Web:      www.OpenFOAM.org                      |
|    \\/     M anipulation  |                                                 |
|*---------------------------------------------------------------------------*|
|  File created by CFD support s.r.o., Tue Feb 28 09:22:18 2017               |
|                    http://www.cdfsupport.com                                |
\*---------------------------------------------------------------------------*/
FoamFile
{
    version     3.0;
    format      ascii;
    class       dictionary;
    location    "constant";
    object      g;
}
// * * * * * * * * * * * * * * * * * * * * * * * * * * * * * * * * * * * * * //

dimensions [0 1 -2 0 0 0 0];

value (0 0 0);

// ************************************************************************* //
