/*--------------------------------*- C++ -*----------------------------------*\
  =========                 |
  \\      /  F ield         | OpenFOAM: The Open Source CFD Toolbox
   \\    /   O peration     | Website:  https://openfoam.org
    \\  /    A nd           | Version:  7
     \\/     M anipulation  |
\*---------------------------------------------------------------------------*/
FoamFile
{
    version     2.0;
    format      ascii;
    class       polyBoundaryMesh;
    location    "constant/polyMesh";
    object      boundary;
}
// * * * * * * * * * * * * * * * * * * * * * * * * * * * * * * * * * * * * * //

5
(
    inlet
    {
        type            patch;
        nFaces          4000;
        startFace       2368000;
    }
    outlet
    {
        type            patch;
        nFaces          4000;
        startFace       2372000;
    }
    ground
    {
        type            wall;
        inGroups        List<word> 1(wall);
        nFaces          20000;
        startFace       2376000;
    }
    top
    {
        type            symmetry;
        inGroups        List<word> 1(symmetry);
        nFaces          20000;
        startFace       2396000;
    }
    frontAndBack
    {
        type            symmetry;
        inGroups        List<word> 1(symmetry);
        nFaces          16000;
        startFace       2416000;
    }
)

// ************************************************************************* //
