/*--------------------------------*- C++ -*----------------------------------*\
| =========                 |                                                 |
| \\      /  F ield         | OpenFOAM: The Open Source CFD Toolbox           |
|  \\    /   O peration     | Version:  3.0.x                                 |
|   \\  /    A nd           | Web:      www.OpenFOAM.org                      |
|    \\/     M anipulation  |                                                 |
|*---------------------------------------------------------------------------*|
|  File created by CFD support s.r.o., Tue Feb 28 09:22:19 2017               |
|                    http://www.cdfsupport.com                                |
\*---------------------------------------------------------------------------*/
FoamFile
{
    version     3.0;
    format      ascii;
    class       volScalarField;
    location    "0.org";
    object      nuTilda;
}
// * * * * * * * * * * * * * * * * * * * * * * * * * * * * * * * * * * * * * //

dimensions      [0 2 -1 0 0 0 0];

internalField   uniform 4.13;

boundaryField
{
    inlet
    {
        type            fixedValue;
        value           uniform 4.13;
    }
    outlet
    {
        type            inletOutlet;
        inletValue      uniform 4.13;
        value           uniform 4.13;
    }
    wall
    {
        type            fixedValue;
        value           uniform 0;
    }
    top
    {
        type            slip;//symmetryPlane;
    }
    left
    {
        type            slip;//symmetryPlane;
    }
    right
    {
        type            slip;//symmetryPlane;
    }
    cyclicAMI {type cyclicAMI;}
}


// ************************************************************************* //
