/*--------------------------------*- C++ -*----------------------------------*\
| =========                 |                                                 |
| \\      /  F ield         | OpenFOAM: The Open Source CFD Toolbox           |
|  \\    /   O peration     | Version:  3.0.x                                 |
|   \\  /    A nd           | Web:      www.OpenFOAM.org                      |
|    \\/     M anipulation  |                                                 |
|*---------------------------------------------------------------------------*|
|  File created by CFD support s.r.o., Tue Feb 28 09:22:19 2017               |
|                    http://www.cdfsupport.com                                |
\*---------------------------------------------------------------------------*/
FoamFile
{
    version     3.0;
    format      ascii;
    class       volVectorField;
    location    "0.org";
    object      U;
}
// * * * * * * * * * * * * * * * * * * * * * * * * * * * * * * * * * * * * * //

dimensions      [0 1 -1 0 0 0 0];

internalField   uniform (-10 0 0);

boundaryField
{
    inlet
    {
        type            fixedValue;
        value           uniform (-10 0 0);
    }

    outlet
    {
        type            inletOutlet;
        inletValue      uniform (0 0 0);
        value           uniform (0 0 0);
    }

    wall
    {
        type            movingWallVelocity;
        value           uniform (0 0 0);
    }

    right
    {
        type            slip;
    }
    
    left
    {
        type            slip;
    }
    
    top
    {
        type            slip;
    }
    cyclicAMI
    { type cyclicAMI; }
}

// ************************************************************************* //
