/*--------------------------------*- C++ -*----------------------------------*\
| =========                 |                                                 |
| \\      /  F ield         | OpenFOAM: The Open Source CFD Toolbox           |
|  \\    /   O peration     | Version:  1.6                                   |
|   \\  /    A nd           | Web:      www.OpenFOAM.org                      |
|    \\/     M anipulation  |                                                 |
\*---------------------------------------------------------------------------*/
FoamFile
{
    version     2.0;
    format      ascii;
    class       dictionary;
    location    "system";
    object      controlDict;
}
// * * * * * * * * * * * * * * * * * * * * * * * * * * * * * * * * * * * * * //

averagingTime   0.1; 

application     pimpleFoam;

startFrom       latestTime;

startTime       0;

stopAt          endTime;

endTime         10;

deltaT          0.1;

writeControl    timeStep;

writeInterval   1;

purgeWrite      10;

writeFormat     ascii;

writePrecision  6;

writeCompression uncompressed;

timeFormat      general;

timePrecision   6;

runTimeModifiable yes;

adjustTimeStep    no;

maxCo             0.5;

maxDeltaT         2.0e-3;

functions
{
    //#includeFunc        boundaryProbesInlet;
    //#includeFunc        boundaryProbesCyclicLeft;
    //#includeFunc        boundaryProbesCyclicRight;
}

libs
(
    "libWallModelledLES.so"
    "libScaledMappedVelocityFixedValue.so"
);

// ************************************************************************* //
